-------------------------------------------------------
          Amber 16 PMEMD                              2016
          -------------------------------------------------------

  [-O]verwriting output

File Assignments:

 Here is the input file:

*******************************************************
*****************************       mdin
*******************************************************
Production 5.00 ns, NPT.
 &cntrl
  imin = 0,
  ntx = 5,
  irest = 1,
  ntpr = 1250000,
  ntwr = 1250000,
  ntwe = 250,
  ntxo = 2,
  ntwx = 500,
  ntwprt = 146,
  ioutfm = 1,
  iwrap = 1,
  ntf = 2,
  ntc = 2,
  cut = 9.0,
  ntt = 3,
  temp0 = 298.15,
  gamma_ln = 1.0,
  ig = -1,
  ntp = 1,
  barostat = 2,
  nstlim = 1250000,
  dt = 0.002,
  ntr = 1,
  restraint_wt = 50.0,
  restraintmask = ':8-10',
  nmropt = 1,
  pencut = -1,
 /
 &wt type = 'END', /
DISANG=disang.rest
LISTOUT=POUT

Note: ig = -1. Setting random seed to   963048 based on wallclock time in
      microseconds.

--------------------------------------------------------------------------------
   1.  RESOURCE   USE:
--------------------------------------------------------------------------------

 getting box info from netcdf restart file
 NATOM  =    6159 NTYPES =     148 NBONH =    6072 MBONA  =      76
 NTHETH =     165 MTHETA =     111 NPHIH =     376 MPHIA  =     292
 NHPARM =       0 NPARM  =       0 NNB   =    8861 NRES   =    2023
 NBONA  =      76 NTHETA =     111 NPHIA =     292 NUMBND =       9
 NUMANG =       3 NPTRA  =     423 NATYP =       1 NPHB   =       0
 IFBOX  =       1 NMXRS  =      21 IFCAP =       0 NEXTRA =       0
 NCOPY  =       0

     BOX TYPE: RECTILINEAR

--------------------------------------------------------------------------------
   2.  CONTROL  DATA  FOR  THE  RUN
--------------------------------------------------------------------------------

General flags:
     imin    =       0, nmropt  =       1

Nature and format of input:
     ntx     =       5, irest   =       1, ntrx    =       1

Nature and format of output:
     ntxo    =       2, ntpr    = 1250000, ntrx    =       1, ntwr    = 1250000
     iwrap   =       1, ntwx    =     500, ntwv    =       0, ntwe    =     250
     ioutfm  =       1, ntwprt  =     146, idecomp =       0, rbornstat=      0

Potential function:
     ntf     =       2, ntb     =       2, igb     =       0, nsnb    =      25
     ipol    =       0, gbsa    =       0, iesp    =       0
     dielc   =   1.00000, cut     =   9.00000, intdiel =   1.00000

Frozen or restrained atoms:
     ibelly  =       0, ntr     =       1
     restraint_wt =  50.00000

Molecular dynamics:
     nstlim  =   1250000, nscm    =         0, nrespa  =         1
     t       =   0.00000, dt      =   0.00200, vlimit  =  -1.00000

Langevin dynamics temperature regulation:
     ig      =  963048
     temp0   = 298.15000, tempi   =   0.00000, gamma_ln=   1.00000

Pressure regulation:
     ntp     =       1
     pres0   =   1.00000, comp    =  44.60000, taup    =   1.00000
     Monte-Carlo Barostat:
     mcbarint  =     100

SHAKE:
     ntc     =       2, jfastw  =       0
     tol     =   0.00001

NMR refinement options:
     iscale  =       0, noeskp  =       1, ipnlty  =       1, mxsub   =       1
     scalm   = 100.00000, pencut  =  -1.00000, tausw   =   0.10000

Ewald parameters:
     verbose =       0, ew_type =       0, nbflag  =       1, use_pme =       1
     vdwmeth =       1, eedmeth =       1, netfrc  =       1
     Box X =   34.821   Box Y =   35.050   Box Z =   50.549
     Alpha =   90.000   Beta  =   90.000   Gamma =   90.000
     NFFT1 =   36       NFFT2 =   36       NFFT3 =   56
     Cutoff=    9.000   Tol   =0.100E-04
     Ewald Coefficient =  0.30768
     Interpolation order =    4

    LOADING THE CONSTRAINED ATOMS AS GROUPS

   5.  REFERENCE ATOM COORDINATES

     Mask :8-10; matches     3 atoms

--------------------------------------------------------------------------------
   3.  ATOMIC COORDINATES AND VELOCITIES
--------------------------------------------------------------------------------

 begin time read from input coords = 11051.000 ps

           Begin reading energy term weight changes/NMR restraints
 WEIGHT CHANGES:
                         ** No weight changes given **

 RESTRAINTS:
 Requested file redirections:
  DISANG    = disang.rest
  LISTOUT   = POUT
 Restraints will be read from file: disang.rest
Here are comments from the DISANG input file:
#AnchorAtoms :4@O3 :6@C1 :8@C6 :10@C4 :10@N1 #Type a #Weight 0.00 #TransDist 0.0

                       Number of restraints read =    34

                  Done reading weight changes/NMR restraints

 Number of triangulated 3-point waters found:     2000

     Sum of charges from parm topology file =  -0.00000003
     Forcing neutrality...

--------------------------------------------------------------------------------
   4.  RESULTS
 NSTEP =  1250000   TIME(PS) =   13551.000  TEMP(K) =   292.54  PRESS =     0.0
 Etot   =    -16500.0339  EKtot   =      3605.7202  EPtot      =    -20105.7541
 BOND   =        31.1216  ANGLE   =        81.2480  DIHED      =       131.6481
 1-4 NB =        42.7496  1-4 EEL =       714.7476  VDWAALS    =      2959.9860
 EELEC  =    -24071.4066  EHBOND  =         0.0000  RESTRAINT  =         4.1515
 EAMBER (non-restraint)  =    -20109.9056
 EKCMT  =         0.0000  VIRIAL  =         0.0000  VOLUME     =     62054.1584
                                                    Density    =         1.0194
 ------------------------------------------------------------------------------

      A V E R A G E S   O V E R       1 S T E P S

 NSTEP =  1250000   TIME(PS) =   13551.000  TEMP(K) =   292.54  PRESS =     0.0
 Etot   =    -16500.0339  EKtot   =      3605.7202  EPtot      =    -20105.7541
 BOND   =        31.1216  ANGLE   =        81.2480  DIHED      =       131.6481
 1-4 NB =        42.7496  1-4 EEL =       714.7476  VDWAALS    =      2959.9860
 EELEC  =    -24071.4066  EHBOND  =         0.0000  RESTRAINT  =         4.1515
 EAMBER (non-restraint)  =    -20109.9056
 EKCMT  =         0.0000  VIRIAL  =         0.0000  VOLUME     =     62054.1584
                                                    Density    =         1.0194
 ------------------------------------------------------------------------------

      R M S  F L U C T U A T I O N S

 NSTEP =  1250000   TIME(PS) =   13551.000  TEMP(K) =     0.00  PRESS =     0.0
 Etot   =         0.0000  EKtot   =         0.0000  EPtot      =         0.0000
 BOND   =         0.0000  ANGLE   =         0.0000  DIHED      =         0.0000
 1-4 NB =         0.0000  1-4 EEL =         0.0000  VDWAALS    =         0.0000
 EELEC  =         0.0000  EHBOND  =         0.0000  RESTRAINT  =         0.0000
 EKCMT  =         0.0000  VIRIAL  =         0.0000  VOLUME     =         0.0000
                                                    Density    =         0.0000
 ------------------------------------------------------------------------------
